16

C     -3.0320625655      0.8476515681      0.4578228654
O      0.4413214315      0.2156787518      1.3181703676
C      1.1343058061      0.4254133796      0.3370456255
O      0.6928843878      1.0714974063     -0.7380118153
O     -3.8417992947      1.2533964718     -0.3281074419
O     -1.7902042535      1.3869458743      0.4987039807
H     -0.2410241258      1.3378487599     -0.6114146001
C      2.5615617704     -0.0097178900      0.2078397086
C     -3.2735849002     -0.2523814713      1.4613029165
H     -1.1803912772      0.9112000453      1.1075641443
H      2.8693238335     -0.5441353929      1.1091488681
H      3.1957785459      0.8713597691      0.0496956463
H      2.6680476473     -0.6512865035     -0.6754975079
H     -2.5298530149     -1.0513784033      1.3359730642
H     -4.2803323996     -0.6537503122      1.3243657625
H     -3.1673715913      0.1443179471      2.4801784156
