17

C         -0.75509        1.17642       -1.70752
C         -0.25541        0.11758       -0.73194
O          0.79142       -0.50785       -1.00164
N         -1.33245       -0.56985       -0.09675
C         -0.92876       -1.65397        0.78080
H          0.07232        1.84883       -1.96115
H         -1.58593        1.75804       -1.29045
H         -1.08816        0.66467       -2.62303
H         -1.88120        0.11751        0.40864
H         -1.82679       -2.15022        1.17666
H         -0.29545       -1.31717        1.61677
H         -0.35145       -2.38350        0.20107
O          0.07168        1.33133        0.72899
H          0.66526        2.00562        0.38075
O          2.11519       -0.27541        1.52430
H          2.00694       -0.67391        0.64492
H          1.37644        0.38096        1.45705
