12

C          0.43180       -0.19498        0.11103
C          0.26532       -0.00910        1.54221
O          1.53374        0.27343        0.91853
H          0.55861       -1.20363       -0.29299
H         -0.06239        0.52861       -0.54076
H          0.29479       -0.90587        2.17346
H         -3.27961        0.41243       -0.61141
O         -2.43384        0.47070       -0.15596
C         -0.54744        1.14292        2.05849
H         -1.59069        0.98155        1.72791
H         -0.45836        1.25168        3.15064
H         -0.20195        2.06668        1.57620
