12

C         -0.33451        0.09970       -0.20280
C          0.12805        0.00277        1.27096
O          1.44224       -0.17898        1.38328
H          0.17562       -0.70514       -0.75676
H         -0.02617        1.06663       -0.63036
H         -0.50611       -0.87752        1.66743
H         -2.05862       -0.56202        0.35100
O         -1.75858        0.00124       -0.37243
C         -0.39450        1.23455        2.05308
H         -1.47749        1.40729        1.91821
H         -0.18012        1.09557        3.12262
H          0.15897        2.12235        1.70672
