12

C         -0.11725        0.01225        0.04946
C         -0.03872        0.12304        1.49009
O          1.29366       -0.05008        1.11830
H         -0.11872       -0.98617       -0.36987
H         -0.49357       -0.69107        2.08401
H         -0.30425        1.10763        1.91887
H         -2.65810       -0.56630        0.13647
O         -2.19168        0.01112       -0.47762
C          0.13746        1.18054       -0.85232
H          1.08304        1.04435       -1.39653
H         -0.69736        1.26209       -1.55662
H          0.21079        2.10356       -0.26204
