12

C         -0.48883        0.02620       -0.14208
C          0.07329        0.00287        1.30238
O          1.38114       -0.20828        1.38964
H         -0.17651       -0.91996       -0.62191
H         -0.58501       -0.78624        1.82102
H         -0.29518        0.97783        1.76087
H         -2.19603       -0.31564        0.68871
O         -1.92509        0.10117       -0.13902
C          0.05837        1.19250       -0.93229
H          1.15417        1.15071       -0.86687
H         -0.25882        1.16642       -1.98640
H         -0.28760        2.13517       -0.48066
