12

C         -0.00532        0.01342       -0.00448
C          0.04541        0.02065        1.44146
O          1.37949       -0.03597        1.02681
H          0.03648       -0.92220       -0.54513
H          0.09958        0.94798       -0.53982
H         -0.32153       -0.89916        1.93730
H         -2.51743       -0.54652       -0.35167
O         -2.00687        0.20222       -0.68019
C         -0.38809        1.26062        2.19009
H         -1.48587        1.31509        2.22076
H          0.01145        1.25269        3.21658
H         -0.00791        2.15162        1.67246
