12

C         -2.14956        0.62599       -0.65900
C         -1.27993        0.97167        0.54457
O          0.02858        1.39809        0.23006
C          0.99440        0.40546       -0.09003
O          0.54142       -0.75724       -0.24861
O          2.14123        0.83590       -0.16664
O         -1.90734       -0.64821       -1.19468
H         -2.00105        1.41903       -1.41843
H         -3.20787        0.67245       -0.34230
H         -1.25418        0.10615        1.22767
H         -1.74298        1.82077        1.07209
H         -0.97007       -0.86286       -0.94554
