7

C         -1.13414        0.96669       -0.39864
O         -1.18379        2.13314       -0.25380
Cl        -2.54070       -0.06120       -0.51435
Cl         0.35365        0.06953       -0.57356
O         -1.07802        0.93963        2.38319
H         -1.12101        1.90185        2.39964
H         -1.03456        0.66217        3.30234
