16

C         -0.03072        0.88361       -2.17520
C         -1.23212        0.76172       -1.47673
C         -1.26428        0.34535       -0.12207
C          0.00608        0.14287        0.24048
C          1.26337        0.17974       -0.21134
C          1.19062        0.60320       -1.56218
H         -0.04649        1.20380       -3.21562
H         -2.19004        0.98211       -1.94981
H         -2.16532        0.23783        0.47651
H          2.18246       -0.04721        0.32296
H          2.13349        0.69907       -2.10236
N         -0.03139       -1.38718        2.05007
N         -0.04837       -2.09956        2.88394
O          0.17018        1.37890        2.45717
H          0.23377        2.33659        2.36342
H          0.19075        1.21410        3.40758
