14

C         -0.03162       -0.02721        0.00633
C          0.00499       -0.01770        1.47133
O          1.43118       -0.00419        1.23685
H          0.07727       -1.00103       -0.47428
H         -0.35708       -0.90996        1.98608
H         -0.29994        0.90931        1.96217
H          1.82933       -0.87560        1.38673
H         -2.72545       -1.18741       -0.32848
H         -2.93250        0.34190       -0.27460
O         -2.26852       -0.35139       -0.17387
C          0.08153        1.18304       -0.81960
H          1.11241        1.24054       -1.20189
H         -0.55963        1.06659       -1.70249
H         -0.15892        2.09844       -0.27055
