14

C         -0.35310        0.18378       -0.25038
C          0.00409       -0.04125        1.21306
O          1.35801       -0.39455        1.11203
H          0.01356       -0.62149       -0.89346
H         -0.06526        1.17111       -0.62269
H         -0.59420       -0.90178        1.58107
H          1.79512       -0.35786        1.97036
H         -2.29783       -0.63406       -0.05041
H         -2.23249        0.47194       -1.21096
O         -1.86890        0.18976       -0.35137
C         -0.25505        1.17213        2.08847
H         -1.31580        1.45799        2.07623
H          0.00765        0.94740        3.12963
H          0.34978        2.02276        1.74810
