14

C         -0.43446       -0.07669       -0.14620
C          0.05917       -0.19989        1.28745
O          1.43520       -0.39702        1.13938
H         -0.18510       -0.97367       -0.72456
H         -0.43483       -1.05480        1.78488
H         -0.18772        0.71805        1.84648
H          1.87694       -0.46512        1.99270
H         -2.37595       -0.94988        0.23368
H         -2.44707        0.27127       -0.80254
O         -1.98238       -0.09735       -0.02867
C         -0.08090        1.19756       -0.85057
H          1.01554        1.23586       -0.89175
H         -0.45133        1.22314       -1.88385
H         -0.43186        2.07409       -0.29072
