13

C          0.45595        0.01620        0.14718
O          0.32056       -0.56220        1.29078
C          1.69576       -0.35147       -0.68019
H          1.73171        0.21895       -1.61856
H          1.66354       -1.42569       -0.90363
H          2.58590       -0.12963       -0.07837
O          0.47644        1.48721        0.29622
H          0.33237        1.55601        1.24699
O         -0.65231       -0.23497       -0.80826
C         -1.90814       -0.10054       -0.21870
H         -2.12984        0.95372        0.03654
H         -1.97879       -0.69928        0.70464
H         -2.66076       -0.45031       -0.94270
