13

C          0.38896       -0.75715        0.11473
O          0.25099       -1.12283        1.26243
C          1.68259       -0.42993       -0.55031
H          1.65627        0.68503       -0.50341
H          1.68444       -0.75003       -1.59958
H          2.52549       -0.84958        0.00871
O          0.27806        2.05995        0.01313
H          0.38159        2.87918        0.50680
O         -0.65072       -0.58076       -0.72460
C         -1.84750       -0.11291       -0.10917
H         -1.62299        0.90277        0.26047
H         -2.16060       -0.78565        0.70115
H         -2.60779       -0.09089       -0.89882
