22

O         -0.22494        0.05883        0.62289
C         -0.15577       -0.48586        1.78540
C          1.10405        0.08036        0.01006
C          1.94665       -0.55478        1.04785
C          1.17943       -0.89552        2.11009
H          1.47472       -1.37750        3.03761
H          3.01915       -0.67968        0.91045
C         -1.37762       -0.60700        2.59792
H         -1.24023       -0.03830        3.52928
H         -2.25273       -0.23880        2.05671
H         -1.51592       -1.65816        2.88749
C          1.05128       -0.60862       -1.34121
H          0.77778       -1.66501       -1.23317
H          0.32310       -0.10473       -1.98501
H          2.04233       -0.53344       -1.80004
H          1.37605        1.14055       -0.10264
O          3.77199        1.12436       -0.56829
H          5.63183        2.93591        1.68687
H          4.18254        1.80032        0.00320
O          4.82791        3.03680        1.16558
H          4.31143        1.11390       -1.36532
H          4.69491        3.98555        1.06257
