22

O         -0.12080       -0.29617       -0.08134
C         -0.33558       -0.26858        1.34519
C          1.12814       -0.28584       -0.33731
C          1.92151       -0.33330        0.91055
C          0.84883       -0.29593        1.95186
H          1.00647       -0.29400        3.02605
H          2.52597       -1.25773        0.91627
C         -1.75654       -0.22187        1.74516
H         -1.82834       -0.21800        2.83701
H         -2.23759        0.68340        1.35237
H         -2.29833       -1.09336        1.35540
C          1.58879       -0.39653       -1.72724
H          1.75082       -1.46646       -1.93731
H          0.83276       -0.01434       -2.41834
H          2.54195        0.12470       -1.85571
H          2.63715        0.50352        0.95229
O          1.23563        2.20330       -0.30885
H          4.25848        3.05416        0.96130
H          1.94271        2.62451        0.21161
O          3.42070        2.74332        1.32499
H          0.77194        2.90621       -0.77376
H          3.33237        3.18743        2.17675
