22

O          0.12362        0.37941        0.13753
C          0.09884        0.16984        1.37764
C          1.53209        0.12733       -0.47149
C          2.35095       -0.27174        0.76103
C          1.34606       -0.44134        1.90285
H          1.11078       -1.49632        2.12286
H          2.91937       -1.18505        0.56115
C         -1.13791        0.41063        2.13593
H         -1.82739        1.04756        1.57639
H         -1.60892       -0.56769        2.32422
H         -0.89570        0.84519        3.11213
C          1.31537       -0.92331       -1.52970
H          0.94196       -1.85285       -1.08510
H          0.58973       -0.57776       -2.27676
H          2.27287       -1.13039       -2.02224
H          3.05608        0.53528        0.98160
O          1.93899        1.34043       -0.93930
H          1.63965        1.49685       -1.84515
H          1.23505        3.25556        2.25862
O          1.17104        2.48733        1.68198
H          1.64177        0.02526        2.84832
H          1.49729        2.77023        0.81760
