22

O          0.04690        0.19831       -0.02602
C          0.02540        0.05196        1.37038
C          1.34421        0.07373       -0.46062
C          2.15836       -0.52907        0.67999
C          1.21555       -0.33260        1.84028
H          1.43079       -0.57605        2.87708
H          2.34345       -1.59354        0.47587
C         -1.29516        0.29726        1.99488
H         -1.23893        0.14446        3.07693
H         -1.64240        1.31829        1.78798
H         -2.03883       -0.39436        1.57752
C          1.44399       -0.50152       -1.84187
H          1.06581       -1.52914       -1.81160
H          0.82577        0.06547       -2.54904
H          2.48478       -0.51011       -2.18261
H          3.14006       -0.04758        0.77632
O          1.87322        1.54229       -0.59433
H          2.59002        3.48397        1.86614
H          1.95951        2.03811        0.31427
O          2.06741        2.71373        1.61420
H          1.29180        2.05034       -1.18552
H          1.72132        2.28769        2.40831
