12

C          2.45789        1.41005        1.15691
N          1.02790        1.55664        0.87459
C          0.13085        0.67705        1.09949
O         -0.56675        0.90442        3.48824
H          2.74698        2.15444        1.90650
H          2.64605        0.40237        1.53730
H          3.02159        1.57970        0.23365
H         -1.02227        1.65246        3.89205
H         -0.90899        0.88822        0.85588
H          0.42159       -0.29886        1.48503
H         -0.64613        0.18729        4.12886
H          0.73155        2.45580        0.49516
