12

C          2.32760        1.48841        1.30557
N          0.88230        1.71377        1.51769
C          0.01634        0.55430        1.56608
O         -0.26266        0.66712        3.02441
H          2.85242        2.43375        1.46833
H          2.68651        0.75611        2.03673
H          2.52905        1.12813        0.29003
H          0.34722        1.63871        2.86546
H         -0.90927        0.65342        0.99299
H          0.52441       -0.39760        1.39163
H         -1.19308        0.68582        3.31285
H          0.51842        2.46303        0.93127
