12

C      0.8221751786     -0.1392161130      0.0945488416
C     -0.1899694948     -1.2615182176     -0.0655288001
O      1.6412336055      0.0494213392     -1.0381178435
C     -1.4522187766     -0.9465405558     -0.3405600605
O      1.3094385410      0.0777420224      1.1985287621
H      1.0380239802      0.5225748636     -1.6304551592
C     -1.6682437415      0.5381286262     -0.5462066304
H     -2.3838264082      0.9043675715      0.2328309277
O     -0.4511265306      1.1582937649     -0.5002874704
H     -2.2003224671      0.6919348872     -1.5176217344
H      0.1613387720     -2.2767575198      0.1328599227
H     -2.2657426586     -1.6761806687     -0.4040607556
