12

C      0.7212231281     -0.0358159021      0.0353152181
C     -0.1834011499     -1.2630822449     -0.1276370323
O      1.6915588602      0.0216567906     -1.0455002739
C     -1.4554168097     -0.9600602993     -0.3669657189
O      1.1968685362      0.1607322686      1.1769680383
H      1.1957353587      0.3859506325     -1.7860894136
C     -1.6086477329      0.5380453970     -0.5026391364
H     -2.2388574012      0.9353336853      0.3241162511
O     -0.3263796169      1.0720747692     -0.4812197294
H     -2.1304601894      0.8045151187     -1.4456732271
H      0.2272891273     -2.2580912302      0.0475139862
H     -2.2949521106     -1.6576089854     -0.4240589621
