16

C         -1.73428       -0.10366        0.33848
O         -0.37878       -0.29639        0.63972
C          0.60197        0.44460        0.03805
O          0.43970        1.58307       -0.31584
O         -2.09014        0.24163       -0.74745
O         -1.66571        2.61096        1.24772
H         -0.95391        2.46083        0.60061
C          1.87389       -0.32526       -0.05664
C         -2.57282       -0.48070        1.50583
H         -2.39586        2.94991        0.71912
H          2.11838       -0.76566        0.91834
H          2.67929        0.32789       -0.40086
H          1.73527       -1.15837       -0.76007
H         -2.39834        0.25782        2.29944
H         -2.27265       -1.46597        1.88499
H         -3.62642       -0.48123        1.21572
