16

C         -1.73911       -0.15262        0.41711
O         -0.37058       -0.35124        0.66775
C          0.59255        0.34224       -0.00615
O          0.41569        1.44304       -0.46144
O         -2.14026        0.09670       -0.67847
O         -1.61441        2.63684        1.06494
H         -0.93632        2.41534        0.40255
C          1.89196       -0.39262       -0.04711
C         -2.52228       -0.40131        1.65472
H         -2.36985        2.92597        0.54249
H          1.81043       -1.40397        0.35942
H          2.63689        0.18123        0.51926
H          2.23454       -0.42417       -1.08893
H         -2.28872        0.39979        2.36861
H         -2.22401       -1.35695        2.10480
H         -3.58973       -0.39880        1.42103
