17

C         -0.96831        1.58380        1.79387
C         -0.24678        0.99828        0.57702
O         -0.94136        0.79017       -0.45021
O          0.99106        0.80001        0.70699
H         -0.88779        2.68096        1.74779
H         -0.49356        1.25328        2.72728
H         -2.03408        1.32093        1.78475
H          1.59076        0.45967       -0.90823
N         -0.22676       -2.14656       -0.96648
C          0.04734       -2.59870        0.38854
H         -0.71607       -1.24776       -0.90335
H          0.65448       -1.87666       -1.40608
H          0.60583       -1.86864        1.00459
H          0.62215       -3.53868        0.36580
H         -0.90103       -2.81620        0.90434
O          1.57230        0.32978       -1.89221
H          0.61950        0.47554       -2.00601
