12

C          0.90053       -0.03936        0.10774
C         -0.01704        0.01189        1.23848
O          1.40996       -0.27100        1.42319
H          0.90185       -0.91125       -0.55717
H          1.22969        0.89868       -0.35762
H         -0.67919       -0.84674        1.38381
H         -3.72581       -0.13926        0.24537
O         -2.84819        0.04742        0.60016
C         -0.55021        1.29135        1.78483
H         -1.58265        1.36347        1.38154
H         -0.60399        1.24411        2.88396
H          0.08162        2.14593        1.49608
