12

C          0.07237        0.00691        0.01675
C          0.05631        0.02064        1.46013
O          1.39232       -0.02810        1.01460
H          0.03723       -0.92498       -0.53353
H          0.08937        0.94078       -0.53088
H         -0.29240       -0.90514        1.95716
H         -2.56100       -0.54899       -0.37778
O         -2.09258        0.22132       -0.72663
C         -0.38094        1.25897        2.19444
H         -1.48018        1.30848        2.20295
H         -0.00260        1.26106        3.22993
H          0.00148        2.14948        1.67702
