12

C         -1.94166        0.56033       -0.74633
C         -1.19762        0.67601        0.57627
O         -0.08580        1.52031        0.47203
C          1.11178        0.92185       -0.10798
O          1.00735       -0.28053       -0.40540
O          2.03417        1.73110       -0.20098
O         -2.93675       -0.46357       -0.70981
H         -1.20057        0.36407       -1.53708
H         -2.47237        1.49428       -0.97976
H         -0.88539       -0.33902        0.88317
H         -1.86327        1.09413        1.35086
H         -2.47140       -1.28394       -0.50661
