7

C         -1.20037        0.95491        0.58103
O         -1.39950        2.19614        0.11765
Cl        -2.44945       -0.10951       -0.16318
Cl         0.45607        0.29478        0.03542
O         -1.24336        0.93580        1.93243
H         -0.85908        2.80645        0.64282
H         -0.98230        0.06245        2.25844
