16

C         -0.02033        0.87428       -2.14905
C         -1.21082        0.77353       -1.43068
C         -1.21960        0.37383       -0.06987
C          0.04874        0.16064        0.31800
C          1.28976        0.17989       -0.19471
C          1.20585        0.59025       -1.55057
H         -0.04878        1.17757       -3.19526
H         -2.17762        0.99948       -1.88598
H         -2.11976        0.29256        0.53562
H          2.22441       -0.05940        0.30706
H          2.14552        0.66479       -2.10253
N         -0.00052       -1.34607        1.99561
N         -0.14423       -2.09587        2.78934
O         -0.02584        1.32987        2.45647
H         -0.05322        2.27973        2.28094
H          0.46843        1.23985        3.28243
