16

C         -0.05974        0.69165       -2.28384
C         -0.83637        1.21589       -1.24308
C         -0.53998        0.90966        0.07568
C          0.56281        0.06109        0.29893
C          1.36401       -0.48277       -0.72555
C          1.03119       -0.15053       -2.02795
H         -0.30805        0.94307       -3.31544
H         -1.68081        1.86896       -1.46358
H         -1.10807        1.28518        0.92752
H          2.20480       -1.13443       -0.48939
H          1.62326       -0.54814       -2.85229
N          0.87374       -0.25860        1.59265
N          1.11243       -0.50992        2.65107
O         -1.16690        1.10210        3.19826
H         -1.00572        1.87882        3.74878
H         -1.93199        0.67751        3.60644
