13

C          0.45883       -0.04341        0.16929
O          0.28011       -0.67977        1.26324
C          1.69803       -0.39081       -0.66076
H          1.76224        0.22843       -1.56719
H          1.64479       -1.45042       -0.94512
H          2.58675       -0.22440       -0.03805
O          0.51176        1.42750        0.39329
H          0.33520        1.45221        1.34271
O         -0.64626       -0.20677       -0.84131
C         -1.90551       -0.07452       -0.26812
H         -2.10977        0.97010        0.04748
H         -2.01086       -0.72341        0.62086
H         -2.65553       -0.36254       -1.02339
