13

C          0.40176       -0.62084        0.14856
O          0.28097       -0.85220        1.33631
C          1.69301       -0.44518       -0.57596
H          1.74335        0.65941       -0.67683
H          1.66238       -0.90882       -1.57128
H          2.52581       -0.83239        0.02217
O          0.22641        1.99273       -0.06753
H          0.35199        2.49079        0.75041
O         -0.64445       -0.60804       -0.70889
C         -1.86092       -0.14412       -0.13653
H         -1.66352        0.90343        0.16487
H         -2.15528       -0.76593        0.72194
H         -2.61591       -0.20624       -0.93052
