13

C          0.29624       -0.33561       -0.10298
O          0.12496        0.25707        0.99670
C          1.44282       -0.50306       -0.84989
H          1.77577        2.10570       -0.35452
H          1.41475       -1.04513       -1.79522
H          2.39982       -0.21062       -0.41739
O          1.56468        2.47660        0.51320
H          1.02973        1.72126        0.87674
O         -0.85675       -0.90671       -0.69416
C         -2.06269       -0.59735       -0.05108
H         -2.24640        0.49035       -0.02016
H         -2.08373       -0.96076        0.98970
H         -2.85779       -1.08876       -0.63042
