22

O          0.12238        0.22394        0.15465
C          0.14882        0.14593        1.41490
C          1.57180        0.01355       -0.45187
C          2.28364       -0.63679        0.72968
C          1.45518       -0.27811        1.96429
H          1.32241       -1.10013        2.68232
H          2.31781       -1.72269        0.58547
C         -1.07502        0.37114        2.18592
H         -1.78985        0.98479        1.63125
H         -1.52739       -0.61791        2.37654
H         -0.83550        0.80911        3.16122
C          1.36353       -0.80611       -1.68840
H          0.85049       -1.74542       -1.45558
H          0.76951       -0.25374       -2.42845
H          2.34457       -1.04081       -2.12134
H          3.31144       -0.26372        0.78223
O          2.04438        1.27099       -0.66916
H          1.79511        1.58829       -1.54938
H          0.71557        3.50286        2.07192
O          0.87848        2.64649        1.66140
H          1.85304        0.57422        2.53775
H          1.44463        2.82001        0.89854
