22

O         -0.06966       -0.13422       -0.07586
C         -0.16098       -0.11375        1.35504
C          1.17982       -0.19397       -0.43340
C          2.03518       -0.46240        0.75460
C          1.06017       -0.28361        1.87231
H          1.29477       -0.34127        2.93137
H          2.39017       -1.50848        0.67771
C         -1.52598        0.05450        1.87348
H         -1.51005        0.04294        2.96780
H         -1.96496        1.00216        1.53059
H         -2.17682       -0.75766        1.51964
C          1.49036       -0.48515       -1.83950
H          1.38638       -1.57280       -1.98388
H          0.78418        0.01303       -2.51107
H          2.51862       -0.19851       -2.07728
H          2.93772        0.16139        0.79129
O          1.63481        1.86374       -0.56015
H          3.58636        3.33358        1.51242
H          1.98153        2.26947        0.27604
O          2.81424        2.76705        1.63678
H          0.89625        2.40818       -0.86309
H          2.40792        3.05581        2.46289
