11

C          1.06881       -1.61424        1.44287
N          0.54361       -0.28111        1.58719
C         -0.65023       -0.03879        1.24273
O          1.18267        2.21741        2.70653
H          1.96544       -1.58107        0.80829
H          1.38983       -1.97957        2.42838
H          0.34159       -2.32381        1.00983
H          1.15533        1.30745        2.33831
H         -1.04045        0.97755        1.36359
H         -1.32034       -0.81208        0.82584
H          1.94572        2.63187        2.29227
