12

C          2.24676        1.53606        1.06451
N          1.00628        1.69532        1.87744
C          0.11462        0.45595        1.91923
O         -0.88424        0.68209        2.82036
H          2.81926        2.46651        1.10564
H          2.83274        0.71254        1.48348
H          1.96146        1.31228        0.03217
H          1.23598        1.92247        2.85350
H         -0.21721        0.27101        0.88830
H          0.76969       -0.35745        2.26068
H         -1.74426        0.82491        2.40440
H          0.45056        2.48950        1.53793
