11

C          1.18756       -1.42162        1.45216
N          0.68418       -0.24139        0.77243
C         -0.11362        0.62081        1.56151
O          0.63603        1.14749        2.66468
H          1.73153       -2.05054        0.73659
H          1.85097       -1.19616        2.30446
H          0.33530       -2.00502        1.82971
H          1.42963        0.27457        0.31240
H         -0.47987        1.44853        0.93090
H         -0.97924        0.04969        1.94367
H          0.06189        1.69847        3.20973
