12

C          0.36151       -0.28709       -1.04237
C          1.67820       -0.82610       -1.56568
O         -0.70212       -1.20390       -1.48679
C          2.45080       -1.37205       -0.62574
O          0.12158        0.93285       -1.16603
H         -1.24580       -1.30844       -0.69714
C          1.73591       -1.37916        0.69837
H          2.34280       -0.85898        1.47787
O          0.51458       -0.75655        0.50559
H          1.61072       -2.42811        1.06427
H          1.93887       -0.68100       -2.61530
H          3.46562       -1.76077       -0.75680
