12

C          0.30843       -0.38188       -0.90623
C          1.60442       -0.88020       -1.52386
O         -0.77700       -1.23197       -1.36592
C          2.45293       -1.38863       -0.63037
O          0.04903        0.85655       -1.00727
H         -1.47884       -0.57429       -1.46884
C          1.80926       -1.38579        0.72905
H          2.41743       -0.78446        1.44680
O          0.53730       -0.85958        0.57291
H          1.76923       -2.41696        1.15280
H          1.78422       -0.72679       -2.58867
H          3.47646       -1.73168       -0.80914
